version 2
run General-54-20200811-20:42:55-10952
attr configname General
attr datetime 20200811-20:42:55
attr experiment General
attr inifile omnetpp.ini
attr iterationvars ""
attr iterationvarsf ""
attr measurement ""
attr network fcnetwork
attr processid 10952
attr repetition 54
attr replication #54
attr resultdir results
attr runnumber 54
attr seedset 54

scalar fcnetwork.node1 #status 6
scalar fcnetwork.node2 #status 15
scalar fcnetwork.node3 #status 6
scalar fcnetwork.node4 #status 6

