version 2
run General-6-20200811-20:42:54-10952
attr configname General
attr datetime 20200811-20:42:54
attr experiment General
attr inifile omnetpp.ini
attr iterationvars ""
attr iterationvarsf ""
attr measurement ""
attr network fcnetwork
attr processid 10952
attr repetition 6
attr replication #6
attr resultdir results
attr runnumber 6
attr seedset 6

scalar fcnetwork.node1 #status 6
scalar fcnetwork.node2 #status 6
scalar fcnetwork.node3 #status 8
scalar fcnetwork.node4 #status 8

