version 2
run General-10-20200811-20:42:54-10952
attr configname General
attr datetime 20200811-20:42:54
attr experiment General
attr inifile omnetpp.ini
attr iterationvars ""
attr iterationvarsf ""
attr measurement ""
attr network fcnetwork
attr processid 10952
attr repetition 10
attr replication #10
attr resultdir results
attr runnumber 10
attr seedset 10

scalar fcnetwork.node1 #status 7
scalar fcnetwork.node2 #status 6
scalar fcnetwork.node3 #status 8
scalar fcnetwork.node4 #status 6

