version 2
run General-1-20200811-20:42:53-10952
attr configname General
attr datetime 20200811-20:42:53
attr experiment General
attr inifile omnetpp.ini
attr iterationvars ""
attr iterationvarsf ""
attr measurement ""
attr network fcnetwork
attr processid 10952
attr repetition 1
attr replication #1
attr resultdir results
attr runnumber 1
attr seedset 1

scalar fcnetwork.node1 #status 6
scalar fcnetwork.node2 #status 6
scalar fcnetwork.node3 #status 15
scalar fcnetwork.node4 #status 6

