version 2
run General-19-20200811-20:42:54-10952
attr configname General
attr datetime 20200811-20:42:54
attr experiment General
attr inifile omnetpp.ini
attr iterationvars ""
attr iterationvarsf ""
attr measurement ""
attr network fcnetwork
attr processid 10952
attr repetition 19
attr replication #19
attr resultdir results
attr runnumber 19
attr seedset 19

scalar fcnetwork.node1 #status 6
scalar fcnetwork.node2 #status 9
scalar fcnetwork.node3 #status 15
scalar fcnetwork.node4 #status 6

