version 2
run General-78-20200811-20:42:55-10952
attr configname General
attr datetime 20200811-20:42:55
attr experiment General
attr inifile omnetpp.ini
attr iterationvars ""
attr iterationvarsf ""
attr measurement ""
attr network fcnetwork
attr processid 10952
attr repetition 78
attr replication #78
attr resultdir results
attr runnumber 78
attr seedset 78

scalar fcnetwork.node1 #status 6
scalar fcnetwork.node2 #status 7
scalar fcnetwork.node3 #status 8
scalar fcnetwork.node4 #status 7

