version 2
run General-91-20200811-20:42:56-10952
attr configname General
attr datetime 20200811-20:42:56
attr experiment General
attr inifile omnetpp.ini
attr iterationvars ""
attr iterationvarsf ""
attr measurement ""
attr network fcnetwork
attr processid 10952
attr repetition 91
attr replication #91
attr resultdir results
attr runnumber 91
attr seedset 91

scalar fcnetwork.node1 #status 6
scalar fcnetwork.node2 #status 10
scalar fcnetwork.node3 #status 6
scalar fcnetwork.node4 #status 6

