version 2
run General-88-20200811-20:42:55-10952
attr configname General
attr datetime 20200811-20:42:55
attr experiment General
attr inifile omnetpp.ini
attr iterationvars ""
attr iterationvarsf ""
attr measurement ""
attr network fcnetwork
attr processid 10952
attr repetition 88
attr replication #88
attr resultdir results
attr runnumber 88
attr seedset 88

scalar fcnetwork.node1 #status 15
scalar fcnetwork.node2 #status 6
scalar fcnetwork.node3 #status 15
scalar fcnetwork.node4 #status 6

