version 2
run General-62-20200811-20:42:55-10952
attr configname General
attr datetime 20200811-20:42:55
attr experiment General
attr inifile omnetpp.ini
attr iterationvars ""
attr iterationvarsf ""
attr measurement ""
attr network fcnetwork
attr processid 10952
attr repetition 62
attr replication #62
attr resultdir results
attr runnumber 62
attr seedset 62

scalar fcnetwork.node1 #status 6
scalar fcnetwork.node2 #status 7
scalar fcnetwork.node3 #status 6
scalar fcnetwork.node4 #status 6

