version 2
run General-21-20200811-20:42:54-10952
attr configname General
attr datetime 20200811-20:42:54
attr experiment General
attr inifile omnetpp.ini
attr iterationvars ""
attr iterationvarsf ""
attr measurement ""
attr network fcnetwork
attr processid 10952
attr repetition 21
attr replication #21
attr resultdir results
attr runnumber 21
attr seedset 21

scalar fcnetwork.node1 #status 6
scalar fcnetwork.node2 #status 15
scalar fcnetwork.node3 #status 6
scalar fcnetwork.node4 #status 10

