version 2
run General-49-20200811-20:42:55-10952
attr configname General
attr datetime 20200811-20:42:55
attr experiment General
attr inifile omnetpp.ini
attr iterationvars ""
attr iterationvarsf ""
attr measurement ""
attr network fcnetwork
attr processid 10952
attr repetition 49
attr replication #49
attr resultdir results
attr runnumber 49
attr seedset 49

scalar fcnetwork.node1 #status 10
scalar fcnetwork.node2 #status 9
scalar fcnetwork.node3 #status 15
scalar fcnetwork.node4 #status 6

