version 2
run General-12-20200811-20:42:54-10952
attr configname General
attr datetime 20200811-20:42:54
attr experiment General
attr inifile omnetpp.ini
attr iterationvars ""
attr iterationvarsf ""
attr measurement ""
attr network fcnetwork
attr processid 10952
attr repetition 12
attr replication #12
attr resultdir results
attr runnumber 12
attr seedset 12

scalar fcnetwork.node1 #status 7
scalar fcnetwork.node2 #status 6
scalar fcnetwork.node3 #status 6
scalar fcnetwork.node4 #status 6

