version 2
run General-95-20200811-20:42:56-10952
attr configname General
attr datetime 20200811-20:42:56
attr experiment General
attr inifile omnetpp.ini
attr iterationvars ""
attr iterationvarsf ""
attr measurement ""
attr network fcnetwork
attr processid 10952
attr repetition 95
attr replication #95
attr resultdir results
attr runnumber 95
attr seedset 95

scalar fcnetwork.node1 #status 6
scalar fcnetwork.node2 #status 9
scalar fcnetwork.node3 #status 6
scalar fcnetwork.node4 #status 9

