version 2
run General-76-20200811-20:42:55-10952
attr configname General
attr datetime 20200811-20:42:55
attr experiment General
attr inifile omnetpp.ini
attr iterationvars ""
attr iterationvarsf ""
attr measurement ""
attr network fcnetwork
attr processid 10952
attr repetition 76
attr replication #76
attr resultdir results
attr runnumber 76
attr seedset 76

scalar fcnetwork.node1 #status 15
scalar fcnetwork.node2 #status 6
scalar fcnetwork.node3 #status 6
scalar fcnetwork.node4 #status 8

