version 2
run General-52-20200811-20:42:55-10952
attr configname General
attr datetime 20200811-20:42:55
attr experiment General
attr inifile omnetpp.ini
attr iterationvars ""
attr iterationvarsf ""
attr measurement ""
attr network fcnetwork
attr processid 10952
attr repetition 52
attr replication #52
attr resultdir results
attr runnumber 52
attr seedset 52

scalar fcnetwork.node1 #status 10
scalar fcnetwork.node2 #status 6
scalar fcnetwork.node3 #status 15
scalar fcnetwork.node4 #status 6

